GTP_501
bel02242215213D
Extracted with PDBaser
 32 34  0  0  1  0  0  0  0  0999 V2000
  -26.9430   74.0360  -46.2390 P   0  0  0  0  0  0  0  0  0  0  0  0
  -26.7450   72.5830  -46.6080 O   0  0  0  0  0  0  0  0  0  0  0  0
  -25.7120   74.6400  -45.6180 O   0  0  0  0  0  0  0  0  0  0  0  0
  -28.2230   74.3350  -45.5030 O   0  0  0  0  0  0  0  0  0  0  0  0
  -27.1530   74.8230  -47.6410 O   0  0  0  0  0  0  0  0  0  0  0  0
  -26.3000   76.0960  -48.1820 P   0  0  1  0  0  0  0  0  0  0  0  0
  -26.9990   76.5370  -49.4420 O   0  0  0  0  0  0  0  0  0  0  0  0
  -26.0920   77.1280  -47.1050 O   0  0  0  0  0  0  0  0  0  0  0  0
  -24.8570   75.4570  -48.5590 O   0  0  0  0  0  0  0  0  0  0  0  0
  -23.7150   76.2000  -49.4400 P   0  0  1  0  0  0  0  0  0  0  0  0
  -24.2910   77.4800  -49.9990 O   0  0  0  0  0  0  0  0  0  0  0  0
  -22.4510   76.2970  -48.6160 O   0  0  0  0  0  0  0  0  0  0  0  0
  -23.4500   75.1600  -50.6420 O   0  0  0  0  0  0  0  0  0  0  0  0
  -22.2960   74.3210  -50.7160 C   0  0  0  0  0  0  0  0  0  0  0  0
  -21.6750   74.4880  -52.1030 C   0  0  1  0  0  0  0  0  0  0  0  0
  -21.6230   75.8760  -52.4250 O   0  0  0  0  0  0  0  0  0  0  0  0
  -20.2440   73.9790  -52.2120 C   0  0  1  0  0  0  0  0  0  0  0  0
  -20.0770   73.3590  -53.4920 O   0  0  0  0  0  0  0  0  0  0  0  0
  -19.3620   75.2090  -52.1140 C   0  0  1  0  0  0  0  0  0  0  0  0
  -18.1800   75.0950  -52.9150 O   0  0  0  0  0  0  0  0  0  0  0  0
  -20.2750   76.3070  -52.6280 C   0  0  2  0  0  0  0  0  0  0  0  0
  -20.0980   77.5990  -51.9310 N   0  0  0  0  0  0  0  0  0  0  0  0
  -20.3980   77.8920  -50.6520 C   0  0  0  0  0  0  0  0  0  0  0  0
  -20.1170   79.1910  -50.3780 N   0  0  0  0  0  0  0  0  0  0  0  0
  -19.6350   79.7500  -51.5050 C   0  0  0  0  0  0  0  0  0  0  0  0
  -19.1430   81.0880  -51.9310 C   0  0  0  0  0  0  0  0  0  0  0  0
  -19.1080   82.0470  -51.1270 O   0  0  0  0  0  0  0  0  0  0  0  0
  -18.7250   81.2300  -53.2060 N   0  0  0  0  0  0  0  0  0  0  0  0
  -18.7450   80.2140  -54.1000 C   0  0  0  0  0  0  0  0  0  0  0  0
  -18.3160   80.4210  -55.3630 N   0  0  0  0  0  0  0  0  0  0  0  0
  -19.1850   78.9710  -53.7790 N   0  0  0  0  0  0  0  0  0  0  0  0
  -19.6290   78.6890  -52.5260 C   0  0  0  0  0  0  0  0  0  0  0  0
  1  3  1  0  0  0  0
  1  4  1  0  0  0  0
  2  1  2  0  0  0  0
  5  1  1  0  0  0  0
  6  7  2  6  0  0  0
  6  5  1  0  0  0  0
  6  8  1  0  0  0  0
  9  6  1  0  0  0  0
 10 11  2  6  0  0  0
 10 12  1  0  0  0  0
 10  9  1  0  0  0  0
 13 10  1  0  0  0  0
 14 13  1  0  0  0  0
 15 14  1  1  0  0  0
 16 15  1  0  0  0  0
 17 18  1  6  0  0  0
 17 19  1  0  0  0  0
 17 15  1  0  0  0  0
 19 20  1  6  0  0  0
 21 16  1  0  0  0  0
 21 19  1  0  0  0  0
 21 22  1  1  0  0  0
 22 23  1  0  0  0  0
 23 24  2  0  0  0  0
 25 24  1  0  0  0  0
 26 25  1  0  0  0  0
 26 27  2  0  0  0  0
 28 26  1  0  0  0  0
 29 31  1  0  0  0  0
 29 28  2  0  0  0  0
 30 29  1  0  0  0  0
 31 32  1  0  0  0  0
 32 22  1  0  0  0  0
 32 25  2  0  0  0  0
M  END
$$$$
